opendss_networks/LV25_232bus/lines.dss
new line.L_8 lineCode=uglv_240al_xlpe/nyl/pvc_ug_4w_bundled bus1=B1805 bus2=B918 length=0.0387728361021 units=km phases=4
new line.L_20 lineCode=uglv_240al_xlpe/nyl/pvc_ug_4w_bundled bus1=B688 bus2=B2200 length=0.0595521916409 units=km phases=4
new line.L_32 lineCode=uglv_240al_xlpe/nyl/pvc_ug_4w_bundled bus1=B2106 bus2=B1529 length=0.0363133975801 units=km phases=4
new line.L_52 lineCode=uglv_240al_xlpe/nyl/pvc_ug_4w_bundled bus1=B2565 bus2=B2841 length=0.0533199088983 units=km phases=4
new line.L_55 lineCode=ugsc_16cu_xlpe/nyl/pvc_ug_4w_bundled bus1=B1866 bus2=B1805 length=0.0107759896115 units=km phases=4
new line.L_57 lineCode=ugsc_16cu_xlpe/nyl/pvc_ug_4w_bundled bus1=B3177 bus2=B2145 length=0.0101595588155 units=km phases=4
new line.L_61 lineCode=ugsc_16cu_xlpe/nyl/pvc_ug_4w_bundled bus1=B2565 bus2=B1366 length=0.0182627834900 units=km phases=4
new line.L_99 lineCode=ugsc_16cu_xlpe/nyl/pvc_ug_4w_bundled bus1=B327 bus2=B2917 length=0.0111664220057 units=km phases=4
new line.L_151 lineCode=uglv_240al_xlpe/nyl/pvc_ug_4w_bundled bus1=B1561 bus2=B656 length=0.0382817242364 units=km phases=4
new line.L_164 lineCode=ugsc_16cu_xlpe/nyl/pvc_ug_4w_bundled bus1=B3241 bus2=B2200 length=0.00984305826011 units=km phases=4
new line.L_222 lineCode=ugsc_16cu_xlpe/nyl/pvc_ug_4w_bundled bus1=B1306 bus2=B704 length=0.0106025446624 units=km phases=4
new line.L_228 lineCode=ugsc_16cu_xlpe/nyl/pvc_ug_4w_bundled bus1=B1849 bus2=B2773 length=0.00373686510809 units=km phases=4
new line.L_237 lineCode=uglv_240al_xlpe/nyl/pvc_ug_4w_bundled bus1=B3181 bus2=B226 length=0.0155182220193 units=km phases=4
new line.L_252 lineCode=ugsc_16cu_xlpe/nyl/pvc_ug_4w_bundled bus1=B81 bus2=B441 length=0.00722452064954 units=km phases=4
new line.L_285 lineCode=ugsc_16cu_xlpe/nyl/pvc_ug_4w_bundled bus1=B1478 bus2=B140 length=0.0165590535830 units=km phases=4
new line.L_307 lineCode=ugsc_16cu_xlpe/nyl/pvc_ug_4w_bundled bus1=B1376 bus2=B2151 length=0.0102077640262 units=km phases=4
new line.L_310 lineCode=ugsc_16cu_xlpe/nyl/pvc_ug_4w_bundled bus1=B2736 bus2=B2122 length=0.0112791423967 units=km phases=4
new line.L_314 lineCode=ugsc_16cu_xlpe/nyl/pvc_ug_4w_bundled bus1=B1927 bus2=B3360 length=0.00619636445328 units=km phases=4
new line.L_354 lineCode=ugsc_16cu_xlpe/nyl/pvc_ug_4w_bundled bus1=B3293 bus2=B888 length=0.0243319185011 units=km phases=4
new line.L_358 lineCode=uglv_240al_xlpe/nyl/pvc_ug_4w_bundled bus1=B888 bus2=B542 length=0.0199335186442 units=km phases=4
new line.L_372 lineCode=ugsc_16cu_xlpe/nyl/pvc_ug_4w_bundled bus1=B349 bus2=B2134 length=0.0136078637763 units=km phases=4
new line.L_462 lineCode=ughv_400al_triplex_ug_4w_bundled bus1=B3065 bus2=B2036 length=0.000328455465442 units=km phases=4
new line.L_476 lineCode=ugsc_16cu_xlpe/nyl/pvc_ug_4w_bundled bus1=B2969 bus2=B2106 length=0.00999217658140 units=km phases=4
new line.L_491 lineCode=ugsc_16cu_xlpe/nyl/pvc_ug_4w_bundled bus1=B3174 bus2=B1561 length=0.00893353483489 units=km phases=4
new line.L_497 lineCode=ugsc_16cu_xlpe/nyl/pvc_ug_4w_bundled bus1=B1203 bus2=B623 length=0.0177903496442 units=km phases=4
new line.L_524 lineCode=ugsc_16cu_xlpe/nyl/pvc_ug_4w_bundled bus1=B2722 bus2=B2171 length=0.0118076075468 units=km phases=4
new line.L_549 lineCode=ugsc_16cu_xlpe/nyl/pvc_ug_4w_bundled bus1=B1633 bus2=B129 length=0.0109749076334 units=km phases=4
new line.L_618 lineCode=ugsc_16cu_xlpe/nyl/pvc_ug_4w_bundled bus1=B1778 bus2=B2078 length=0.0251891620155 units=km phases=4
new line.L_624 lineCode=ugsc_16cu_xlpe/nyl/pvc_ug_4w_bundled bus1=B3347 bus2=B2078 length=0.0122799552027 units=km phases=4
new line.L_637 lineCode=ugsc_16cu_xlpe/nyl/pvc_ug_4w_bundled bus1=B556 bus2=B2078 length=0.0124202497915 units=km phases=4
new line.L_657 lineCode=ugsc_16cu_xlpe/nyl/pvc_ug_4w_bundled bus1=B3192 bus2=B2151 length=0.0212507102362 units=km phases=4
new line.L_667 lineCode=ugsc_16cu_xlpe/nyl/pvc_ug_4w_bundled bus1=B3181 bus2=B2405 length=0.00579015539185 units=km phases=4
new line.L_670 lineCode=ugsc_16cu_xlpe/nyl/pvc_ug_4w_bundled bus1=B1430 bus2=B1642 length=0.0101980165810 units=km phases=4
new line.L_676 lineCode=ugsc_16cu_xlpe/nyl/pvc_ug_4w_bundled bus1=B799 bus2=B656 length=0.0100510874428 units=km phases=4
new line.L_695 lineCode=uglv_240al_xlpe/nyl/pvc_ug_4w_bundled bus1=B2841 bus2=B1553 length=0.0406957697648 units=km phases=4
new line.L_700 lineCode=ugsc_16cu_xlpe/nyl/pvc_ug_4w_bundled bus1=B1332 bus2=B2487 length=0.0213834867053 units=km phases=4
new line.L_783 lineCode=uglv_240al_xlpe/nyl/pvc_ug_4w_bundled bus1=B483 bus2=B3185 length=0.0505753869050 units=km phases=4
new line.L_794 lineCode=ugsc_16cu_xlpe/nyl/pvc_ug_4w_bundled bus1=B1277 bus2=B3181 length=0.0100347739059 units=km phases=4
new line.L_841 lineCode=ughv_400al_triplex_ug_4w_bundled bus1=B3065 bus2=B2414 length=0.000320865729447 units=km phases=4
new line.L_871 lineCode=ugsc_16cu_xlpe/nyl/pvc_ug_4w_bundled bus1=B1150 bus2=B1644 length=0.00833523641366 units=km phases=4
new line.L_901 lineCode=ugsc_16cu_xlpe/nyl/pvc_ug_4w_bundled bus1=B2432 bus2=B2371 length=0.00667223417674 units=km phases=4
new line.L_919 lineCode=ugsc_16cu_xlpe/nyl/pvc_ug_4w_bundled bus1=B1540 bus2=B1553 length=0.00886198773561 units=km phases=4
new line.L_939 lineCode=ugsc_16cu_xlpe/nyl/pvc_ug_4w_bundled bus1=B3152 bus2=B704 length=0.0158969533243 units=km phases=4
new line.L_947 lineCode=ugsc_16cu_xlpe/nyl/pvc_ug_4w_bundled bus1=B490 bus2=B1529 length=0.00936938656991 units=km phases=4
new line.L_990 lineCode=ugsc_16cu_xlpe/nyl/pvc_ug_4w_bundled bus1=B244 bus2=B781 length=0.0184456966426 units=km phases=4
new line.L_1002 lineCode=ugsc_16cu_xlpe/nyl/pvc_ug_4w_bundled bus1=B397 bus2=B2151 length=0.0101997654987 units=km phases=4
new line.L_1008 lineCode=uglv_240al_xlpe/nyl/pvc_ug_4w_bundled bus1=B781 bus2=B483 length=0.0668573770122 units=km phases=4
new line.L_1013 lineCode=ugsc_16cu_xlpe/nyl/pvc_ug_4w_bundled bus1=B725 bus2=B2134 length=0.00526828685531 units=km phases=4
new line.L_1052 lineCode=ugsc_16cu_xlpe/nyl/pvc_ug_4w_bundled bus1=B55 bus2=B1692 length=0.00342812736819 units=km phases=4
new line.L_1076 lineCode=ugsc_16cu_xlpe/nyl/pvc_ug_4w_bundled bus1=B346 bus2=B1449 length=0.00864795986772 units=km phases=4
new line.L_1093 lineCode=ugsc_16cu_xlpe/nyl/pvc_ug_4w_bundled bus1=B868 bus2=B2014 length=0.0104103534506 units=km phases=4
new line.L_1094 lineCode=ugsc_16cu_xlpe/nyl/pvc_ug_4w_bundled bus1=B382 bus2=B1239 length=0.0454130984173 units=km phases=4
new line.L_1130 lineCode=uglv_240al_xlpe/nyl/pvc_ug_4w_bundled bus1=B1953 bus2=B1387 length=0.0380621075285 units=km phases=4
new line.L_1144 lineCode=ugsc_16cu_xlpe/nyl/pvc_ug_4w_bundled bus1=B2406 bus2=B1818 length=0.0347416218389 units=km phases=4
new line.L_1165 lineCode=uglv_240al_xlpe/nyl/pvc_ug_4w_bundled bus1=B2134 bus2=B3152 length=0.0414271215915 units=km phases=4
new line.L_1185 lineCode=ugsc_16cu_xlpe/nyl/pvc_ug_4w_bundled bus1=B453 bus2=B1684 length=0.0113920941931 units=km phases=4
new line.L_1190 lineCode=ugsc_16cu_xlpe/nyl/pvc_ug_4w_bundled bus1=B1795 bus2=B1778 length=0.00400762322836 units=km phases=4
new line.L_1192 lineCode=ugsc_16cu_xlpe/nyl/pvc_ug_4w_bundled bus1=B1794 bus2=B1642 length=0.00952632016693 units=km phases=4
new line.L_1207 lineCode=ugsc_16cu_xlpe/nyl/pvc_ug_4w_bundled bus1=B2997 bus2=B918 length=0.0100964661023 units=km phases=4
new line.L_1220 lineCode=ugsc_16cu_xlpe/nyl/pvc_ug_4w_bundled bus1=B1787 bus2=B2841 length=0.0117707339726 units=km phases=4
new line.L_1227 lineCode=ugsc_16cu_xlpe/nyl/pvc_ug_4w_bundled bus1=B465 bus2=B382 length=0.00639395205647 units=km phases=4
new line.L_1240 lineCode=ugsc_16cu_xlpe/nyl/pvc_ug_4w_bundled bus1=B2217 bus2=B198 length=0.00995826148884 units=km phases=4
new line.L_1260 lineCode=uglv_240al_xlpe/nyl/pvc_ug_4w_bundled bus1=B2199 bus2=B2134 length=0.0290893199524 units=km phases=4
new line.L_1329 lineCode=uglv_240al_xlpe/nyl/pvc_ug_4w_bundled bus1=B1478 bus2=B1805 length=0.0566871224290 units=km phases=4
new line.L_1331 lineCode=ugsc_16cu_xlpe/nyl/pvc_ug_4w_bundled bus1=B231 bus2=B2145 length=0.0106442612043 units=km phases=4
new line.L_1357 lineCode=ugsc_16cu_xlpe/nyl/pvc_ug_4w_bundled bus1=B3168 bus2=B1311 length=0.0106892203191 units=km phases=4
new line.L_1359 lineCode=ugsc_16cu_xlpe/nyl/pvc_ug_4w_bundled bus1=B2296 bus2=B888 length=0.0110349393730 units=km phases=4
new line.L_1369 lineCode=ugsc_16cu_xlpe/nyl/pvc_ug_4w_bundled bus1=B1715 bus2=B441 length=0.00370593262056 units=km phases=4
new line.L_1397 lineCode=uglv_240al_xlpe/nyl/pvc_ug_4w_bundled bus1=B2145 bus2=B1137 length=0.0393881601544 units=km phases=4
new line.L_1424 lineCode=ugsc_16cu_xlpe/nyl/pvc_ug_4w_bundled bus1=B2460 bus2=B1203 length=0.00746997219446 units=km phases=4
new line.L_1430 lineCode=ugsc_16cu_xlpe/nyl/pvc_ug_4w_bundled bus1=B2529 bus2=B1311 length=0.0107103868099 units=km phases=4
new line.L_1455 lineCode=ugsc_16cu_xlpe/nyl/pvc_ug_4w_bundled bus1=B1692 bus2=B2301 length=0.0123296536490 units=km phases=4
new line.L_1470 lineCode=ugsc_16cu_xlpe/nyl/pvc_ug_4w_bundled bus1=B483 bus2=B65 length=0.0107481327920 units=km phases=4
new line.L_1501 lineCode=ugsc_16cu_xlpe/nyl/pvc_ug_4w_bundled bus1=B2258 bus2=B2171 length=0.0117372837030 units=km phases=4
new line.L_1510 lineCode=ughv_400al_triplex_ug_4w_bundled bus1=B188 bus2=B3065 length=0.000244629175817 units=km phases=4
new line.L_1572 lineCode=ugsc_16cu_xlpe/nyl/pvc_ug_4w_bundled bus1=B2151 bus2=B2028 length=0.0163531482694 units=km phases=4
new line.L_1616 lineCode=ugsc_16cu_xlpe/nyl/pvc_ug_4w_bundled bus1=B3388 bus2=B1684 length=0.00743471497120 units=km phases=4
new line.L_1642 lineCode=ugsc_16cu_xlpe/nyl/pvc_ug_4w_bundled bus1=B2046 bus2=B2864 length=0.0147191794641 units=km phases=4
new line.L_1657 lineCode=ugsc_16cu_xlpe/nyl/pvc_ug_4w_bundled bus1=B3247 bus2=B888 length=0.0130258419102 units=km phases=4
new line.L_1685 lineCode=ugsc_16cu_xlpe/nyl/pvc_ug_4w_bundled bus1=B1976 bus2=B542 length=0.00395896908999 units=km phases=4
new line.L_1686 lineCode=uglv_240al_xlpe/nyl/pvc_ug_4w_bundled bus1=B924 bus2=B198 length=0.0362912965391 units=km phases=4
new line.L_1694 lineCode=ugsc_16cu_xlpe/nyl/pvc_ug_4w_bundled bus1=B1549 bus2=B1561 length=0.0102388239954 units=km phases=4
new line.L_1789 lineCode=ugsc_16cu_xlpe/nyl/pvc_ug_4w_bundled bus1=B523 bus2=B3293 length=0.0131914808168 units=km phases=4
new line.L_1821 lineCode=ughv_400al_triplex_ug_4w_bundled bus1=B639 bus2=B494 length=0.000255937531597 units=km phases=4
new line.L_1828 lineCode=ugsc_16cu_xlpe/nyl/pvc_ug_4w_bundled bus1=B182 bus2=B2812 length=0.00535681100320 units=km phases=4
new line.L_1876 lineCode=uglv_240al_xlpe/nyl/pvc_ug_4w_bundled bus1=B3102 bus2=B2199 length=0.0296322859724 units=km phases=4
new line.L_1892 lineCode=uglv_240al_xlpe/nyl/pvc_ug_4w_bundled bus1=B2134 bus2=B781 length=0.0463817746693 units=km phases=4
new line.L_1901 lineCode=ugsc_16cu_xlpe/nyl/pvc_ug_4w_bundled bus1=B2522 bus2=B1818 length=0.0195876503286 units=km phases=4
new line.L_1907 lineCode=ugsc_16cu_xlpe/nyl/pvc_ug_4w_bundled bus1=B1287 bus2=B483 length=0.0123939897390 units=km phases=4
new line.L_1923 lineCode=ughv_400al_triplex_ug_4w_bundled bus1=B390 bus2=B1803 length=7.47735676854e-05 units=km phases=4
new line.L_1947 lineCode=ugsc_16cu_xlpe/nyl/pvc_ug_4w_bundled bus1=B2292 bus2=B2122 length=0.00925051976639 units=km phases=4
new line.L_1990 lineCode=ugsc_16cu_xlpe/nyl/pvc_ug_4w_bundled bus1=B2078 bus2=B2485 length=0.00618553157491 units=km phases=4
new line.L_2054 lineCode=ugsc_16cu_xlpe/nyl/pvc_ug_4w_bundled bus1=B2814 bus2=B1818 length=0.00966467405093 units=km phases=4
new line.L_2069 lineCode=ugsc_16cu_xlpe/nyl/pvc_ug_4w_bundled bus1=B2442 bus2=B1478 length=0.00997989061298 units=km phases=4
new line.L_2119 lineCode=ugsc_16cu_xlpe/nyl/pvc_ug_4w_bundled bus1=B1084 bus2=B2917 length=0.0153646611531 units=km phases=4
new line.L_2128 lineCode=ugsc_16cu_xlpe/nyl/pvc_ug_4w_bundled bus1=B701 bus2=B2812 length=0.0236698399537 units=km phases=4
new line.L_2153 lineCode=ugsc_16cu_xlpe/nyl/pvc_ug_4w_bundled bus1=B3195 bus2=B1465 length=0.0100386681828 units=km phases=4
new line.L_2167 lineCode=uglv_240al_xlpe/nyl/pvc_ug_4w_bundled bus1=B2200 bus2=B1478 length=0.0364497802760 units=km phases=4
new line.L_2217 lineCode=ugsc_16cu_xlpe/nyl/pvc_ug_4w_bundled bus1=B1875 bus2=B924 length=0.0162611677101 units=km phases=4
new line.L_2229 lineCode=uglv_240al_xlpe/nyl/pvc_ug_4w_bundled bus1=B129 bus2=B382 length=0.0526712936093 units=km phases=4
new line.L_2236 lineCode=ugsc_16cu_xlpe/nyl/pvc_ug_4w_bundled bus1=B507 bus2=B382 length=0.00878547501718 units=km phases=4
new line.L_2243 lineCode=ugsc_16cu_xlpe/nyl/pvc_ug_4w_bundled bus1=B3360 bus2=B2106 length=0.0306834066281 units=km phases=4
new line.L_2255 lineCode=ugsc_16cu_xlpe/nyl/pvc_ug_4w_bundled bus1=B1216 bus2=B382 length=0.0139132908028 units=km phases=4
new line.L_2267 lineCode=ugsc_16cu_xlpe/nyl/pvc_ug_4w_bundled bus1=B1511 bus2=B3185 length=0.0387870469300 units=km phases=4
new line.L_2271 lineCode=ugsc_16cu_xlpe/nyl/pvc_ug_4w_bundled bus1=B677 bus2=B1471 length=0.0175721513621 units=km phases=4
new line.L_2301 lineCode=ugsc_16cu_xlpe/nyl/pvc_ug_4w_bundled bus1=B1805 bus2=B2216 length=0.0159467542132 units=km phases=4
new line.L_2308 lineCode=ughv_400al_triplex_ug_4w_bundled bus1=B3065 bus2=B2305 length=0.000554062031469 units=km phases=4
new line.L_2372 lineCode=ugsc_16cu_xlpe/nyl/pvc_ug_4w_bundled bus1=B171 bus2=B701 length=0.0210442740685 units=km phases=4
new line.L_2388 lineCode=ugsc_16cu_xlpe/nyl/pvc_ug_4w_bundled bus1=B2773 bus2=B441 length=0.0218406646701 units=km phases=4
new line.L_2392 lineCode=ugsc_16cu_xlpe/nyl/pvc_ug_4w_bundled bus1=B1178 bus2=B2917 length=0.00992790126174 units=km phases=4
new line.L_2449 lineCode=ugsc_16cu_xlpe/nyl/pvc_ug_4w_bundled bus1=B28 bus2=B382 length=0.0156016061101 units=km phases=4
new line.L_2453 lineCode=ugsc_16cu_xlpe/nyl/pvc_ug_4w_bundled bus1=B686 bus2=B1203 length=0.0105498288254 units=km phases=4
new line.L_2472 lineCode=ugsc_16cu_xlpe/nyl/pvc_ug_4w_bundled bus1=B991 bus2=B1805 length=0.0209267203392 units=km phases=4
new line.L_2505 lineCode=ugsc_16cu_xlpe/nyl/pvc_ug_4w_bundled bus1=B1165 bus2=B1150 length=0.0120368692805 units=km phases=4
new line.L_2541 lineCode=ugsc_16cu_xlpe/nyl/pvc_ug_4w_bundled bus1=B3350 bus2=B3293 length=0.0106120950322 units=km phases=4
new line.L_2570 lineCode=ugsc_16cu_xlpe/nyl/pvc_ug_4w_bundled bus1=B1162 bus2=B2370 length=0.00329143921585 units=km phases=4
new line.L_2589 lineCode=ugsc_16cu_xlpe/nyl/pvc_ug_4w_bundled bus1=B1092 bus2=B2014 length=0.0108199071604 units=km phases=4
new line.L_2594 lineCode=ughv_400al_triplex_ug_4w_bundled bus1=B883 bus2=B1024 length=7.47735676854e-05 units=km phases=4
new line.L_2622 lineCode=ugsc_16cu_xlpe/nyl/pvc_ug_4w_bundled bus1=B2687 bus2=B2370 length=0.00883303517402 units=km phases=4
new line.L_2694 lineCode=uglv_240al_xlpe/nyl/pvc_ug_4w_bundled bus1=B2565 bus2=B1642 length=0.0462343024002 units=km phases=4
new line.L_2703 lineCode=ugsc_16cu_xlpe/nyl/pvc_ug_4w_bundled bus1=B2484 bus2=B1553 length=0.00592193993829 units=km phases=4
new line.L_2734 lineCode=ugsc_16cu_xlpe/nyl/pvc_ug_4w_bundled bus1=B3094 bus2=B2216 length=0.0249489411582 units=km phases=4
new line.L_2744 lineCode=ughv_400al_triplex_ug_4w_bundled bus1=B639 bus2=B304 length=0.000255582707430 units=km phases=4
new line.L_2748 lineCode=uglv_240al_xlpe/nyl/pvc_ug_4w_bundled bus1=B2812 bus2=B2301 length=0.0389979550478 units=km phases=4
new line.L_2768 lineCode=ugsc_16cu_xlpe/nyl/pvc_ug_4w_bundled bus1=B2817 bus2=B1553 length=0.0204894978078 units=km phases=4
new line.L_2788 lineCode=uglv_240al_xlpe/nyl/pvc_ug_4w_bundled bus1=B2917 bus2=B2812 length=0.0411161100941 units=km phases=4
new line.L_2816 lineCode=ugsc_16cu_xlpe/nyl/pvc_ug_4w_bundled bus1=B2400 bus2=B2812 length=0.0401906971061 units=km phases=4
new line.L_2826 lineCode=uglv_240al_xlpe/nyl/pvc_ug_4w_bundled bus1=B656 bus2=B1003 length=0.0357678947326 units=km phases=4
new line.L_2832 lineCode=uglv_240al_xlpe/nyl/pvc_ug_4w_bundled bus1=B2371 bus2=B1465 length=0.0325774557626 units=km phases=4
new line.L_2838 lineCode=ugsc_16cu_xlpe/nyl/pvc_ug_4w_bundled bus1=B1150 bus2=B2487 length=0.0128393096572 units=km phases=4
new line.L_2851 lineCode=ugsc_16cu_xlpe/nyl/pvc_ug_4w_bundled bus1=B2878 bus2=B2565 length=0.0330225229487 units=km phases=4
new line.L_2859 lineCode=ugsc_16cu_xlpe/nyl/pvc_ug_4w_bundled bus1=B1471 bus2=B2122 length=0.0286674494521 units=km phases=4
new line.L_2863 lineCode=ugsc_16cu_xlpe/nyl/pvc_ug_4w_bundled bus1=B2588 bus2=B1150 length=0.0102256733392 units=km phases=4
new line.L_2868 lineCode=ugsc_16cu_xlpe/nyl/pvc_ug_4w_bundled bus1=B1482 bus2=B2565 length=0.00641460513223 units=km phases=4
new line.L_2884 lineCode=ugsc_16cu_xlpe/nyl/pvc_ug_4w_bundled bus1=B1711 bus2=B781 length=0.00546281068833 units=km phases=4
new line.L_2891 lineCode=ugsc_16cu_xlpe/nyl/pvc_ug_4w_bundled bus1=B3359 bus2=B2482 length=0.0106472314622 units=km phases=4
new line.L_2950 lineCode=uglv_240al_xlpe/nyl/pvc_ug_4w_bundled bus1=B1478 bus2=B1953 length=0.0376618055783 units=km phases=4
new line.L_2951 lineCode=ugsc_16cu_xlpe/nyl/pvc_ug_4w_bundled bus1=B1441 bus2=B2941 length=0.0106122654297 units=km phases=4
new line.L_2976 lineCode=ugsc_16cu_xlpe/nyl/pvc_ug_4w_bundled bus1=B3185 bus2=B2811 length=0.0188909908074 units=km phases=4
new line.L_2995 lineCode=ugsc_16cu_xlpe/nyl/pvc_ug_4w_bundled bus1=B3302 bus2=B2864 length=0.0127768787041 units=km phases=4
new line.L_3000 lineCode=ugsc_16cu_xlpe/nyl/pvc_ug_4w_bundled bus1=B2200 bus2=B3355 length=0.0186154906807 units=km phases=4
new line.L_3022 lineCode=uglv_240al_xlpe/nyl/pvc_ug_4w_bundled bus1=B1642 bus2=B1008 length=0.0326349148614 units=km phases=4
new line.L_3041 lineCode=ugsc_16cu_xlpe/nyl/pvc_ug_4w_bundled bus1=B1826 bus2=B1805 length=0.0108930668480 units=km phases=4
new line.L_3074 lineCode=ugsc_16cu_xlpe/nyl/pvc_ug_4w_bundled bus1=B2992 bus2=B1953 length=0.0102835254722 units=km phases=4
new line.L_3076 lineCode=uglv_240al_xlpe/nyl/pvc_ug_4w_bundled bus1=B918 bus2=B1150 length=0.0396830675070 units=km phases=4
new line.L_3123 lineCode=ugsc_16cu_xlpe/nyl/pvc_ug_4w_bundled bus1=B813 bus2=B918 length=0.0108347953415 units=km phases=4
new line.L_3150 lineCode=uglv_240al_xlpe/nyl/pvc_ug_4w_bundled bus1=B1684 bus2=B2565 length=0.0187989608322 units=km phases=4
new line.L_3158 lineCode=ugsc_16cu_xlpe/nyl/pvc_ug_4w_bundled bus1=B577 bus2=B1478 length=0.00965486527698 units=km phases=4
new line.L_3163 lineCode=ughv_400al_triplex_ug_4w_bundled bus1=B3065 bus2=B1219 length=0.000206301915236 units=km phases=4
new line.L_3187 lineCode=ugsc_16cu_xlpe/nyl/pvc_ug_4w_bundled bus1=B1953 bus2=B2014 length=0.0150758551310 units=km phases=4
new line.L_3212 lineCode=ugsc_16cu_xlpe/nyl/pvc_ug_4w_bundled bus1=B918 bus2=B2171 length=0.0127909444795 units=km phases=4
new line.L_3222 lineCode=ugsc_16cu_xlpe/nyl/pvc_ug_4w_bundled bus1=B634 bus2=B3355 length=0.0302828763519 units=km phases=4
new line.L_3223 lineCode=ugsc_16cu_xlpe/nyl/pvc_ug_4w_bundled bus1=B1448 bus2=B639 length=0.743841182572 units=km phases=4
new line.L_3226 lineCode=ugsc_16cu_xlpe/nyl/pvc_ug_4w_bundled bus1=B1358 bus2=B2812 length=0.0107919379259 units=km phases=4
new line.L_3240 lineCode=ugsc_16cu_xlpe/nyl/pvc_ug_4w_bundled bus1=B1559 bus2=B3152 length=0.0102699254485 units=km phases=4
new line.L_3290 lineCode=uglv_240al_xlpe/nyl/pvc_ug_4w_bundled bus1=B113 bus2=B1684 length=0.0181531561797 units=km phases=4
new line.L_3295 lineCode=ugsc_16cu_xlpe/nyl/pvc_ug_4w_bundled bus1=B1402 bus2=B2028 length=0.00980609100970 units=km phases=4
new line.L_3318 lineCode=ugsc_16cu_xlpe/nyl/pvc_ug_4w_bundled bus1=B1222 bus2=B198 length=0.0332680877436 units=km phases=4
new line.L_3332 lineCode=uglv_240al_xlpe/nyl/pvc_ug_4w_bundled bus1=B1311 bus2=B888 length=0.0418096011286 units=km phases=4
new line.L_3340 lineCode=uglv_240al_xlpe/nyl/pvc_ug_4w_bundled bus1=B2864 bus2=B2941 length=0.0434058187692 units=km phases=4
new line.L_3348 lineCode=ugsc_16cu_xlpe/nyl/pvc_ug_4w_bundled bus1=B2370 bus2=B2917 length=0.0353216955239 units=km phases=4
new line.L_3350 lineCode=ugsc_16cu_xlpe/nyl/pvc_ug_4w_bundled bus1=B198 bus2=B1173 length=0.0124734237760 units=km phases=4
new line.L_3361 lineCode=ugsc_16cu_xlpe/nyl/pvc_ug_4w_bundled bus1=B999 bus2=B2106 length=0.00970221711741 units=km phases=4
new line.L_3382 lineCode=ugsc_16cu_xlpe/nyl/pvc_ug_4w_bundled bus1=B659 bus2=B3152 length=0.0109214308456 units=km phases=4
new line.L_3408 lineCode=ugsc_16cu_xlpe/nyl/pvc_ug_4w_bundled bus1=B400 bus2=B2200 length=0.0204863450952 units=km phases=4
new line.L_3415 lineCode=ugsc_16cu_xlpe/nyl/pvc_ug_4w_bundled bus1=B2191 bus2=B2941 length=0.00992781480744 units=km phases=4
new line.L_3441 lineCode=ugsc_16cu_xlpe/nyl/pvc_ug_4w_bundled bus1=B1329 bus2=B656 length=0.00992588797602 units=km phases=4
new line.L_3450 lineCode=ugsc_16cu_xlpe/nyl/pvc_ug_4w_bundled bus1=B624 bus2=B1778 length=0.00658373805298 units=km phases=4
new line.L_3455 lineCode=ugsc_16cu_xlpe/nyl/pvc_ug_4w_bundled bus1=B1936 bus2=B704 length=0.0108911506041 units=km phases=4
new line.L_3458 lineCode=uglv_240al_xlpe/nyl/pvc_ug_4w_bundled bus1=B382 bus2=B1818 length=0.0640853768928 units=km phases=4
new line.L_3459 lineCode=ugsc_16cu_xlpe/nyl/pvc_ug_4w_bundled bus1=B3014 bus2=B1529 length=0.0101067255848 units=km phases=4
new line.L_3461 lineCode=ugsc_16cu_xlpe/nyl/pvc_ug_4w_bundled bus1=B1891 bus2=B2216 length=0.0115166918016 units=km phases=4
new line.L_3469 lineCode=uglv_240al_xlpe/nyl/pvc_ug_4w_bundled bus1=B1387 bus2=B2122 length=0.0443931139702 units=km phases=4
new line.L_3491 lineCode=uglv_240al_xlpe/nyl/pvc_ug_4w_bundled bus1=B2482 bus2=B1561 length=0.0356026935000 units=km phases=4
new line.L_3552 lineCode=ugsc_16cu_xlpe/nyl/pvc_ug_4w_bundled bus1=B2264 bus2=B2812 length=0.0312338583676 units=km phases=4
new line.L_3579 lineCode=uglv_240al_xlpe/nyl/pvc_ug_4w_bundled bus1=B1387 bus2=B2864 length=0.0238547354009 units=km phases=4
new line.L_3586 lineCode=ugsc_16cu_xlpe/nyl/pvc_ug_4w_bundled bus1=B2118 bus2=B1449 length=0.00378533018113 units=km phases=4
new line.L_3619 lineCode=ugsc_16cu_xlpe/nyl/pvc_ug_4w_bundled bus1=B2900 bus2=B2812 length=0.0102281004169 units=km phases=4
new line.L_3628 lineCode=ugsc_16cu_xlpe/nyl/pvc_ug_4w_bundled bus1=B2651 bus2=B701 length=0.00953208117473 units=km phases=4
new line.L_3630 lineCode=uglv_240al_xlpe/nyl/pvc_ug_4w_bundled bus1=B2151 bus2=B3181 length=0.0382021179728 units=km phases=4
new line.L_3675 lineCode=ugsc_16cu_xlpe/nyl/pvc_ug_4w_bundled bus1=B3258 bus2=B3181 length=0.00985968167880 units=km phases=4
new line.L_3735 lineCode=uglv_240al_xlpe/nyl/pvc_ug_4w_bundled bus1=B2941 bus2=B2145 length=0.0376245293710 units=km phases=4
new line.L_3755 lineCode=ugsc_16cu_xlpe/nyl/pvc_ug_4w_bundled bus1=B1965 bus2=B2028 length=0.0103501885852 units=km phases=4
new line.L_3770 lineCode=ugsc_16cu_xlpe/nyl/pvc_ug_4w_bundled bus1=B872 bus2=B2487 length=0.0107073254914 units=km phases=4
new line.L_3807 lineCode=ugsc_16cu_xlpe/nyl/pvc_ug_4w_bundled bus1=B1576 bus2=B2200 length=0.00859498598851 units=km phases=4
new line.L_3828 lineCode=ugsc_16cu_xlpe/nyl/pvc_ug_4w_bundled bus1=B1203 bus2=B1311 length=0.0203351650989 units=km phases=4
new line.L_3830 lineCode=ugsc_16cu_xlpe/nyl/pvc_ug_4w_bundled bus1=B1526 bus2=B3185 length=0.00932308580169 units=km phases=4
new line.L_3846 lineCode=ugsc_16cu_xlpe/nyl/pvc_ug_4w_bundled bus1=B2155 bus2=B542 length=0.00566603259318 units=km phases=4
new line.L_3860 lineCode=ugsc_16cu_xlpe/nyl/pvc_ug_4w_bundled bus1=B3361 bus2=B888 length=0.0109630359183 units=km phases=4
new line.L_3866 lineCode=uglv_240al_xlpe/nyl/pvc_ug_4w_bundled bus1=B1818 bus2=B2371 length=0.0366212916339 units=km phases=4
new line.L_3869 lineCode=ugsc_16cu_xlpe/nyl/pvc_ug_4w_bundled bus1=B62 bus2=B1008 length=0.00696937358173 units=km phases=4
new line.L_3889 lineCode=ugsc_16cu_xlpe/nyl/pvc_ug_4w_bundled bus1=B1692 bus2=B3339 length=0.00595276038158 units=km phases=4
new line.L_3908 lineCode=ugsc_16cu_xlpe/nyl/pvc_ug_4w_bundled bus1=B2199 bus2=B2437 length=0.00570825537322 units=km phases=4
new line.L_3921 lineCode=ugsc_16cu_xlpe/nyl/pvc_ug_4w_bundled bus1=B924 bus2=B475 length=0.00556811787010 units=km phases=4
new line.L_3922 lineCode=ugsc_16cu_xlpe/nyl/pvc_ug_4w_bundled bus1=B2595 bus2=B924 length=0.0176239755089 units=km phases=4
new line.L_3953 lineCode=uglv_240al_xlpe/nyl/pvc_ug_4w_bundled bus1=B3152 bus2=B2151 length=0.0389577415743 units=km phases=4
new line.L_3955 lineCode=uglv_240al_xlpe/nyl/pvc_ug_4w_bundled bus1=B1529 bus2=B924 length=0.0128645710698 units=km phases=4
new line.L_3963 lineCode=ugsc_16cu_xlpe/nyl/pvc_ug_4w_bundled bus1=B1266 bus2=B129 length=0.0133619621689 units=km phases=4
new line.L_3968 lineCode=ugsc_16cu_xlpe/nyl/pvc_ug_4w_bundled bus1=B2371 bus2=B895 length=0.00549823288288 units=km phases=4
new line.L_3997 lineCode=uglv_240al_xlpe/nyl/pvc_ug_4w_bundled bus1=B3185 bus2=B129 length=0.0418519347014 units=km phases=4
new line.L_4025 lineCode=uglv_240al_xlpe/nyl/pvc_ug_4w_bundled bus1=B198 bus2=B2812 length=0.0501167015120 units=km phases=4
new line.L_4036 lineCode=ugsc_16cu_xlpe/nyl/pvc_ug_4w_bundled bus1=B3075 bus2=B2841 length=0.00542273091585 units=km phases=4
new line.L_4125 lineCode=uglv_240al_xlpe/nyl/pvc_ug_4w_bundled bus1=B1150 bus2=B2773 length=0.0241636549022 units=km phases=4
new line.L_4129 lineCode=ugsc_16cu_xlpe/nyl/pvc_ug_4w_bundled bus1=B2575 bus2=B2122 length=0.0112804722066 units=km phases=4
new line.L_4130 lineCode=uglv_240al_xlpe/nyl/pvc_ug_4w_bundled bus1=B1008 bus2=B1778 length=0.0134030770843 units=km phases=4
new line.L_4141 lineCode=ugsc_16cu_xlpe/nyl/pvc_ug_4w_bundled bus1=B542 bus2=B1449 length=0.0130497731557 units=km phases=4
new line.L_4183 lineCode=ugsc_16cu_xlpe/nyl/pvc_ug_4w_bundled bus1=B2134 bus2=B2227 length=0.0209813525457 units=km phases=4
new line.L_4345 lineCode=ugsc_16cu_xlpe/nyl/pvc_ug_4w_bundled bus1=B2597 bus2=B2106 length=0.00549684769943 units=km phases=4
new line.L_4349 lineCode=uglv_240al_xlpe/nyl/pvc_ug_4w_bundled bus1=B781 bus2=B1311 length=0.0445328392921 units=km phases=4
new line.L_4365 lineCode=ugsc_16cu_xlpe/nyl/pvc_ug_4w_bundled bus1=B1797 bus2=B1008 length=0.00684229515070 units=km phases=4
new line.L_4376 lineCode=ugsc_16cu_xlpe/nyl/pvc_ug_4w_bundled bus1=B2936 bus2=B483 length=0.0235638594497 units=km phases=4
new line.L_4377 lineCode=uglv_240al_xlpe/nyl/pvc_ug_4w_bundled bus1=B1553 bus2=B2917 length=0.0508601620554 units=km phases=4
new line.L_4398 lineCode=ugsc_16cu_xlpe/nyl/pvc_ug_4w_bundled bus1=B2314 bus2=B3185 length=0.0103416082767 units=km phases=4
new line.L_4403 lineCode=ugsc_16cu_xlpe/nyl/pvc_ug_4w_bundled bus1=B2453 bus2=B2482 length=0.0102334144242 units=km phases=4
new line.L_4497 lineCode=ugsc_16cu_xlpe/nyl/pvc_ug_4w_bundled bus1=B3300 bus2=B2171 length=0.00527578064640 units=km phases=4
new line.L_4507 lineCode=ughv_400al_triplex_ug_4w_bundled bus1=B230 bus2=B1433 length=7.47735676854e-05 units=km phases=4
new line.L_4522 lineCode=ugsc_16cu_xlpe/nyl/pvc_ug_4w_bundled bus1=B2482 bus2=B3381 length=0.00679446958467 units=km phases=4
new line.L_4559 lineCode=ugsc_16cu_xlpe/nyl/pvc_ug_4w_bundled bus1=B2941 bus2=B1841 length=0.0191486596812 units=km phases=4
new line.L_4587 lineCode=ugsc_16cu_xlpe/nyl/pvc_ug_4w_bundled bus1=B225 bus2=B1173 length=0.0105784059306 units=km phases=4
new line.L_4595 lineCode=ugsc_16cu_xlpe/nyl/pvc_ug_4w_bundled bus1=B1571 bus2=B2371 length=0.0102252546060 units=km phases=4
new line.L_4617 lineCode=ugsc_16cu_xlpe/nyl/pvc_ug_4w_bundled bus1=B1105 bus2=B2773 length=0.00726105545960 units=km phases=4
new line.L_4648 lineCode=uglv_240al_xlpe/nyl/pvc_ug_4w_bundled bus1=B2122 bus2=B2482 length=0.0189933623637 units=km phases=4
new line.L_4684 lineCode=ugsc_16cu_xlpe/nyl/pvc_ug_4w_bundled bus1=B911 bus2=B1173 length=0.00948650485698 units=km phases=4
